L6/1726539/MASTER-1726539.dss
clear
set defaultbasefrequency=60

! ==========================================================================
!  1726539 — subestacao isolada
!  10 alimentadores | 44,568 barras de MT
! ==========================================================================
!  Modelo para estudo de alimentador. A fonte esta na barra de MT, com o
!  equivalente de curto do patio de AT desta subestacao — os alimentadores
!  dividem a mesma barra, como na operacao real.
!
!  Para a rede completa, com a subtransmissao e as demais subestacoes,
!  use ../MASTER-GERAL.dss.
! ==========================================================================

New Circuit.1726539 basekV=13.8 pu=1.0400 phases=3 bus1=10164267 Angle=0
~ MVAsc3=400 MVAsc1=320

redirect LineCodes.dss
redirect Curvas.dss
redirect _XYCURVES.dss
redirect REDE-1726539.dss


! ------------------------------------------------------------------ medicao
! EnergyMeter na entrada de cada alimentador (no vao de saida). E o que
! permite apurar perdas, energia e sobrecarga POR ALIMENTADOR — o Monitor
! sozinho registra grandeza, nao acumula perdas.
!   Show Meters          resumo por alimentador
!   Show Losses          perdas por elemento
!   Export Meters        planilha com kWh, perdas e violacoes
New EnergyMeter.EM_AXAU05 element=Line.VAO_AXAU05 terminal=1
New EnergyMeter.EM_AXAU13 element=Line.VAO_AXAU13 terminal=1
New EnergyMeter.EM_AXAU17 element=Line.VAO_AXAU17 terminal=1
New EnergyMeter.EM_AXAU11 element=Line.VAO_AXAU11 terminal=1
New EnergyMeter.EM_AXAU03 element=Line.VAO_AXAU03 terminal=1
New EnergyMeter.EM_AXAU04 element=Line.VAO_AXAU04 terminal=1
New EnergyMeter.EM_AXAU02 element=Line.VAO_AXAU02 terminal=1
New EnergyMeter.EM_AXAU10 element=Line.VAO_AXAU10 terminal=1
New EnergyMeter.EM_AXAU14 element=Line.VAO_AXAU14 terminal=1
New EnergyMeter.EM_AXAU07 element=Line.VAO_AXAU07 terminal=1
! Monitores de potencia nos transformadores de potencia (AT -> MT).
! sem trafos de AT
! Monitores de corrente nos troncos de subtransmissao.
! sem linhas de AT

Set Voltagebases=[88 13.8 0.44 0.38 0.24 0.23 0.22 0.208]
CalcVoltagebases

Set maxcontroliter=200
Set maxiterations=100
Set controlmode=static

redirect _CHAVES_ABERTAS.dss

! Premissa de modelagem, e nao conversao — achado 34. Vazio quando a base nao
! tem trecho conduzindo acima da propria ampacidade. Apagar esta linha devolve
! o modelo ao que a BDGD declara.
redirect _AMPACIDADE.dss

! Premissa de modelagem que INVENTA um elo — achado 33, forma B. Vazio ate
! alguem rodar `ligacao.py`. Apagar esta linha devolve o modelo a topologia
! que a BDGD declara.
redirect _LIGACAO.dss

Set mode=snap
Solve
CalcVoltagebases
Solve

! coordenadas — depois do Solve, quando a lista de barras ja existe
Buscoords BusCoords.dat
